Version 4
SHEET 1 1004 832
WIRE 352 80 304 80
WIRE 368 80 352 80
WIRE 944 80 896 80
WIRE 960 80 944 80
WIRE 80 112 64 112
WIRE 336 112 304 112
WIRE 368 112 336 112
WIRE 672 112 656 112
WIRE 928 112 896 112
WIRE 960 112 928 112
WIRE -432 128 -736 128
WIRE 336 144 304 144
WIRE 368 144 336 144
WIRE 928 144 896 144
WIRE 960 144 928 144
WIRE -736 160 -736 128
WIRE -432 160 -672 160
WIRE -160 160 -176 160
WIRE 352 176 304 176
WIRE 368 176 352 176
WIRE 944 176 896 176
WIRE 960 176 944 176
WIRE -432 192 -464 192
WIRE 368 208 304 208
WIRE 960 208 896 208
WIRE 336 240 304 240
WIRE 368 240 336 240
WIRE 928 240 896 240
WIRE 960 240 928 240
WIRE 112 304 112 272
WIRE 160 304 160 272
WIRE 704 304 704 272
WIRE -672 320 -672 160
WIRE 112 336 112 304
WIRE 704 336 704 304
WIRE -352 368 -416 368
WIRE -320 368 -352 368
WIRE -528 448 -528 368
WIRE -416 448 -416 368
WIRE 944 448 896 448
WIRE 960 448 944 448
WIRE 336 464 288 464
WIRE 352 464 336 464
WIRE 672 480 656 480
WIRE 928 480 896 480
WIRE 960 480 928 480
WIRE 64 496 48 496
WIRE 320 496 288 496
WIRE 352 496 320 496
WIRE 928 512 896 512
WIRE 960 512 928 512
WIRE 320 528 288 528
WIRE 352 528 320 528
WIRE -736 544 -736 240
WIRE -672 544 -672 400
WIRE -672 544 -736 544
WIRE -560 544 -672 544
WIRE -528 544 -528 528
WIRE -528 544 -560 544
WIRE -416 544 -416 528
WIRE -416 544 -528 544
WIRE 944 544 896 544
WIRE 960 544 944 544
WIRE 336 560 288 560
WIRE 352 560 336 560
WIRE -560 576 -560 544
WIRE 960 576 896 576
WIRE 352 592 288 592
WIRE 928 608 896 608
WIRE 960 608 928 608
WIRE -224 624 -224 576
WIRE 320 624 288 624
WIRE 352 624 320 624
WIRE 704 672 704 640
WIRE 96 688 96 656
WIRE 704 704 704 672
WIRE 96 720 96 688
WIRE -224 768 -224 704
FLAG -160 160 out[1:36]
FLAG 64 112 out[1:36]
FLAG 48 496 out[10:36],out[1:9]
FLAG 656 112 out[19:36],out[1:18]
FLAG 656 480 out[28:36],out[1:27]
FLAG 352 80 VT[1:8]
FLAG 336 112 VOut
FLAG 336 144 VIN
FLAG 352 176 VB[1:8]
FLAG -560 576 0
FLAG -528 368 VOut
FLAG -224 768 0
FLAG -224 576 VIN
FLAG 368 208 0
FLAG 336 240 VOut
FLAG 336 464 VT[1:8]
FLAG 320 496 VOut
FLAG 320 528 VIN
FLAG 336 560 VB[1:8]
FLAG 352 592 0
FLAG 320 624 VOut
FLAG 944 448 VT[1:8]
FLAG 928 480 VOut
FLAG 928 512 VIN
FLAG 944 544 VB[1:8]
FLAG 960 576 0
FLAG 928 608 VOut
FLAG 944 80 VT[1:8]
FLAG 928 112 VOut
FLAG 928 144 VIN
FLAG 944 176 VB[1:8]
FLAG 960 208 0
FLAG 928 240 VOut
FLAG 160 304 VTP[1:9]
FLAG 752 272 VTP[10:18]
FLAG 144 656 VTP[19:27]
FLAG 752 640 VTP[28:36]
FLAG 112 304 vdd
FLAG 96 688 vdd
FLAG 704 672 vdd
FLAG 704 304 vdd
FLAG -352 368 vdd
FLAG -464 192 vdd
SYMBOL coreX9 144 176 R0
SYMATTR InstName X1
SYMATTR SpiceLine RSW={RSW}
SYMBOL clkgen -304 160 R0
SYMATTR InstName X2
SYMBOL coreX9 128 560 R0
SYMATTR InstName X3
SYMATTR SpiceLine RSW={RSW}
SYMBOL coreX9 736 544 R0
SYMATTR InstName X4
SYMATTR SpiceLine RSW={RSW}
SYMBOL coreX9 736 176 R0
SYMATTR InstName X5
SYMATTR SpiceLine RSW={RSW}
SYMBOL voltage -528 432 R0
WINDOW 123 0 0 Left 0
WINDOW 39 0 0 Left 0
SYMATTR InstName V1
SYMATTR Value 1
SYMBOL voltage -736 144 R0
WINDOW 123 0 0 Left 0
WINDOW 39 0 0 Left 0
SYMATTR InstName V2
SYMATTR Value PULSE(0 1 0 1p 1p 2n 4n)
SYMBOL voltage -672 304 R0
WINDOW 123 0 0 Left 0
WINDOW 39 0 0 Left 0
SYMATTR InstName V3
SYMATTR Value PULSE(0 1 2n 1p 1p 3n 10n 1)
SYMBOL voltage -224 608 R0
WINDOW 123 0 0 Left 0
WINDOW 39 0 0 Left 0
SYMATTR InstName V4
SYMATTR Value 2.5
SYMBOL voltage -416 432 R0
WINDOW 123 0 0 Left 0
WINDOW 39 0 0 Left 0
SYMATTR InstName V5
SYMATTR Value 1
TEXT -688 680 Left 2 !.tran 0 350n 0 15p
TEXT 568 -48 Left 2 !.param RSW = 4
