Version 4
SHEET 1 1288 788
WIRE 112 160 48 160
WIRE 272 160 208 160
WIRE 112 192 -128 192
WIRE 352 192 208 192
WIRE -128 208 -128 192
WIRE 352 208 352 192
WIRE -128 320 -128 288
WIRE 352 320 352 288
WIRE 704 336 640 336
WIRE 176 368 16 368
WIRE 400 368 272 368
WIRE 640 368 640 336
WIRE 704 368 704 336
WIRE 176 400 112 400
WIRE 336 400 272 400
WIRE 176 432 144 432
WIRE 144 464 144 432
WIRE 304 464 144 464
WIRE 320 464 304 464
WIRE 16 496 16 368
WIRE 16 496 -96 496
WIRE 176 496 16 496
WIRE 400 496 400 368
WIRE 400 496 272 496
WIRE 480 496 400 496
WIRE 480 512 480 496
WIRE -96 528 -96 496
WIRE 176 528 112 528
WIRE 336 528 272 528
WIRE 176 560 144 560
WIRE 480 608 480 592
WIRE 704 608 704 448
WIRE 704 608 480 608
WIRE 144 624 144 560
WIRE 224 624 144 624
WIRE 368 624 368 592
WIRE 480 624 480 608
WIRE -96 640 -96 608
WIRE 368 640 368 624
WIRE 224 656 224 624
WIRE 368 752 368 720
WIRE 224 768 224 736
FLAG -128 320 0
FLAG 352 320 0
FLAG 480 624 0
FLAG 272 160 0
FLAG 48 160 0
FLAG -96 640 0
FLAG 336 528 0
FLAG 112 528 0
FLAG 224 768 0
FLAG 336 400 0
FLAG 112 400 0
FLAG 368 752 0
FLAG 368 624 clk
FLAG 304 464 clk
FLAG 640 368 0
SYMBOL 4term_model_EQ 144 208 R0
SYMATTR InstName X1
SYMATTR SpiceLine C = 2n, RSW=1, B = 0.02, T = 0.02, fSW=5Meg
SYMBOL SCcore 224 528 R0
SYMATTR InstName X2
SYMATTR SpiceLine C = 1n, RSW=0.5, B = 0.02, T = 0.02
SYMBOL voltage -128 192 R0
WINDOW 123 0 0 Left 0
WINDOW 39 0 0 Left 0
SYMATTR InstName V1
SYMATTR Value SINE(1 0 {fTest})
SYMBOL voltage 352 192 R0
WINDOW 123 0 0 Left 0
WINDOW 39 0 0 Left 0
SYMATTR InstName V3
SYMATTR Value SINE(0 0 {fTest})
SYMBOL voltage 480 496 R0
WINDOW 123 0 0 Left 0
WINDOW 39 0 0 Left 0
SYMATTR InstName V4
SYMATTR Value SINE(0 0 {fTest})
SYMBOL voltage -96 512 R0
WINDOW 123 0 0 Left 0
WINDOW 39 0 0 Left 0
SYMATTR InstName V2
SYMATTR Value SINE(1 0 {fTest})
SYMBOL voltage 224 640 R0
WINDOW 3 24 96 Invisible 2
WINDOW 123 0 0 Left 0
WINDOW 39 0 0 Left 0
SYMATTR Value PULSE(0 1 0 1p 1p 0.1u 0.2u)
SYMATTR InstName V5
SYMBOL SCcore 224 400 R0
SYMATTR InstName X3
SYMATTR SpiceLine C = 1n, RSW=0.5, B = 0.02, T = 0.02
SYMBOL voltage 368 624 R0
WINDOW 123 0 0 Left 0
WINDOW 39 0 0 Left 0
SYMATTR InstName V6
SYMATTR Value PULSE(0 1 0.1u 1p 1p 0.1u 0.2u)
SYMBOL current 704 368 R0
WINDOW 123 0 0 Left 0
WINDOW 39 0 0 Left 0
SYMATTR InstName I1
SYMATTR Value PULSE(1A 0 0 1p 1p 1p 0.2u)
TEXT 592 144 Left 2 ;.step dec param fTest 1Meg 100Meg 3
TEXT 680 184 Left 2 !.tran 0 20u 10u 10p
TEXT 808 288 Left 2 !.param TSig=1/fTest
TEXT 1072 464 Left 2 !.param fTest 100k
