Version 4
SHEET 1 2172 680
WIRE 912 -416 672 -416
WIRE 1136 -416 992 -416
WIRE 560 -304 496 -304
WIRE 672 -304 672 -416
WIRE 672 -304 560 -304
WIRE 736 -304 672 -304
WIRE 912 -304 816 -304
WIRE 1136 -304 1136 -416
WIRE 1136 -304 992 -304
WIRE 1680 -304 1136 -304
WIRE 1760 -304 1680 -304
WIRE 560 -288 560 -304
WIRE 1680 -272 1680 -304
WIRE 560 -192 560 -208
WIRE 560 -192 544 -192
WIRE 560 -160 560 -192
WIRE 1680 -160 1680 -192
WIRE 1696 -160 1680 -160
WIRE 1840 -160 1840 -224
WIRE 1680 -144 1680 -160
WIRE 560 -80 560 -96
WIRE 560 -80 544 -80
WIRE 1680 -64 1680 -80
WIRE 1696 -64 1680 -64
WIRE 560 -32 560 -80
WIRE 928 -32 688 -32
WIRE 1152 -32 1008 -32
WIRE 1680 -32 1680 -64
WIRE 560 80 560 48
WIRE 560 80 528 80
WIRE 688 80 688 -32
WIRE 688 80 560 80
WIRE 752 80 688 80
WIRE 928 80 832 80
WIRE 1152 80 1152 -32
WIRE 1152 80 1008 80
WIRE 1680 80 1680 48
WIRE 1680 80 1152 80
WIRE 1744 80 1680 80
FLAG 528 80 B1
IOPIN 528 80 In
FLAG 1744 80 B2
IOPIN 1744 80 In
FLAG 496 -304 T1
IOPIN 496 -304 In
FLAG 1760 -304 T2
IOPIN 1760 -304 In
FLAG 1760 -160 0
FLAG 1760 -64 0
FLAG 480 -192 0
FLAG 480 -80 0
SYMBOL bv 848 80 R90
WINDOW 0 -32 56 VBottom 2
WINDOW 3 32 56 Invisible 2
SYMATTR InstName B3
SYMATTR Value V=(V(T2) - V(T1))
SYMBOL res 1008 -320 R90
WINDOW 0 0 56 VBottom 2
WINDOW 3 32 56 VTop 2
SYMATTR InstName R1
SYMATTR Value {(A+1)*(A+1)/(C*F*{1 - A*A*(1+B) - A*T})}
SYMBOL bv 832 -304 R90
WINDOW 0 -32 56 VBottom 2
WINDOW 3 32 56 Invisible 2
SYMATTR InstName B7
SYMATTR Value V=(V(B2) - V(B1))
SYMBOL res 1008 -432 R90
WINDOW 0 0 56 VBottom 2
WINDOW 3 32 56 VTop 2
SYMATTR InstName R3
SYMATTR Value {(1+A)/((A*B+T)*C*F)}
SYMBOL res 1024 -48 R90
WINDOW 0 0 56 VBottom 2
WINDOW 3 32 56 VTop 2
SYMATTR InstName R4
SYMATTR Value {(1+A)/((A*T+B)*C*F)}
SYMBOL res 1024 64 R90
WINDOW 0 0 56 VBottom 2
WINDOW 3 32 56 VTop 2
SYMATTR InstName R2
SYMATTR Value {(A+1)*(A+1)/(C*F*{1 - A*A*(1+T) - A*B})}
SYMBOL res 1664 -288 R0
SYMATTR InstName R6
SYMATTR Value {RSW*2}
SYMBOL cap 544 -160 R0
SYMATTR InstName C1
SYMATTR Value {C/2}
SYMBOL cap 1664 -144 R0
WINDOW 0 24 8 Left 0
SYMATTR InstName C2
SYMATTR Value {C/2}
SYMBOL cap 1760 -80 R90
WINDOW 0 0 32 VBottom 0
WINDOW 3 32 32 VTop 2
SYMATTR InstName C3
SYMATTR Value {B*C}
SYMBOL cap 1760 -176 R90
WINDOW 0 0 32 VBottom 0
WINDOW 3 32 32 VTop 2
SYMATTR InstName C4
SYMATTR Value {T*C/2}
SYMBOL res 1664 -48 R0
SYMATTR InstName R7
SYMATTR Value {RSW*2}
SYMBOL res 544 -304 R0
SYMATTR InstName R5
SYMATTR Value {RSW*2}
SYMBOL res 576 -48 M0
SYMATTR InstName R8
SYMATTR Value {RSW*2}
SYMBOL cap 480 -208 M90
WINDOW 0 0 32 VBottom 0
WINDOW 3 32 32 VTop 2
SYMATTR InstName C5
SYMATTR Value {T*C}
SYMBOL cap 480 -96 M90
WINDOW 0 0 32 VBottom 0
WINDOW 3 32 32 VTop 2
SYMATTR InstName C6
SYMATTR Value {B*C}
TEXT 656 -472 Left 2 !.param A={exp(-1/(C*fSW*RSW*(4+B+T)))}
TEXT 1528 -320 Left 2 !.param C=1n F={fSW} RSW=1000 T=0 B=0
