Version 4
SHEET 1 1428 680
WIRE 192 80 -48 80
WIRE 496 80 192 80
WIRE 736 80 496 80
WIRE 48 144 0 144
WIRE 192 144 192 80
WIRE 192 144 160 144
WIRE 352 144 304 144
WIRE 496 144 496 80
WIRE 496 144 464 144
WIRE 592 144 544 144
WIRE 736 144 736 80
WIRE 736 144 704 144
WIRE -48 176 -48 80
WIRE 48 176 -48 176
WIRE 352 176 160 176
WIRE 592 176 464 176
WIRE 800 176 704 176
WIRE -48 224 -48 176
WIRE 800 240 800 176
WIRE -48 352 -48 304
WIRE 352 352 -48 352
WIRE 800 352 800 320
WIRE 800 352 352 352
FLAG 0 144 0
FLAG 304 144 0
FLAG 544 144 0
FLAG 352 352 0
SYMBOL leakagemodel 640 160 R0
SYMATTR InstName X3
SYMATTR SpiceLine RSW={RSW*0.5}, f={f}, C={2*C},B={B},T={B}
SYMBOL voltage -48 208 R0
SYMATTR InstName In
SYMATTR Value {VIn}
SYMBOL voltage 800 224 R0
SYMATTR InstName Out
SYMATTR Value {VOut}
SYMBOL leakagemodel 96 160 R0
SYMATTR InstName X1
SYMATTR SpiceLine RSW={RSW*0.5}, f={f}, C={2*C},B={B},T={B}
SYMBOL leakagemodel 400 160 R0
SYMATTR InstName X2
SYMATTR SpiceLine RSW={RSW*0.5}, f={f}, C={2*C},B={B},T={B}
TEXT 168 232 Left 2 !.param VOut=3.5 VIn=1 C=1n RSW=1
TEXT 168 264 Left 2 !.param f = 50Meg
TEXT 168 296 Left 2 !.param B = 0.01
TEXT -82 376 Left 2 !.op
