Version 4
SHEET 1 1040 680
WIRE 208 96 0 96
WIRE 480 96 208 96
WIRE 800 96 480 96
WIRE 80 144 32 144
WIRE 208 144 208 96
WIRE 208 144 176 144
WIRE 352 144 304 144
WIRE 480 144 480 96
WIRE 480 144 448 144
WIRE 672 144 624 144
WIRE 800 144 800 96
WIRE 800 144 768 144
WIRE 0 176 0 96
WIRE 80 176 0 176
WIRE 272 176 176 176
WIRE 352 176 272 176
WIRE 528 176 448 176
WIRE 672 176 528 176
WIRE 832 176 768 176
WIRE 48 208 32 208
WIRE 80 208 48 208
WIRE 352 208 336 208
WIRE 672 208 656 208
WIRE 80 320 32 320
WIRE 208 320 208 144
WIRE 208 320 176 320
WIRE 352 320 304 320
WIRE 480 320 480 144
WIRE 480 320 448 320
WIRE 672 320 624 320
WIRE 800 320 800 144
WIRE 800 320 768 320
WIRE -96 352 -128 352
WIRE 0 352 0 176
WIRE 0 352 -96 352
WIRE 80 352 0 352
WIRE 272 352 272 176
WIRE 272 352 176 352
WIRE 352 352 272 352
WIRE 528 352 528 176
WIRE 528 352 448 352
WIRE 672 352 528 352
WIRE 832 352 832 176
WIRE 832 352 768 352
WIRE 896 352 832 352
WIRE 928 352 896 352
WIRE -560 384 -560 352
WIRE -352 384 -352 352
WIRE -128 384 -128 352
WIRE 80 384 64 384
WIRE 352 384 336 384
WIRE 672 384 656 384
WIRE 928 384 928 352
WIRE -560 528 -560 464
WIRE -352 528 -352 464
WIRE -352 528 -560 528
WIRE -128 528 -128 464
WIRE -128 528 -352 528
WIRE 288 528 -128 528
WIRE 928 528 928 464
WIRE 928 528 288 528
WIRE 288 560 288 528
FLAG 32 144 0
FLAG 32 320 0
FLAG 304 320 0
FLAG 304 144 0
FLAG 896 352 Out
FLAG 288 560 0
FLAG -96 352 In
FLAG 48 208 clk1
FLAG 336 208 clk1
FLAG 336 384 clk2
FLAG 64 384 clk2
FLAG 624 320 0
FLAG 624 144 0
FLAG 656 208 clk1
FLAG 656 384 clk2
FLAG -560 352 clk2
FLAG -352 352 clk1
SYMBOL voltage -128 368 R0
SYMATTR InstName V1
SYMATTR Value {VIn}
SYMBOL voltage 928 368 R0
SYMATTR InstName V2
SYMATTR Value {VOut}
SYMBOL voltage -352 368 R0
WINDOW 3 24 96 Invisible 2
WINDOW 123 0 0 Left 0
WINDOW 39 0 0 Left 0
SYMATTR Value PULSE(0 1 {0.5*T_SW} 1p 1p {0.5*T_SW} {T_SW})
SYMATTR InstName V3
SYMBOL voltage -560 368 R0
WINDOW 3 24 96 Invisible 2
WINDOW 123 0 0 Left 0
WINDOW 39 0 0 Left 0
SYMATTR Value PULSE(0 1 0 1p 1p {0.5*T_SW} {T_SW})
SYMATTR InstName V4
SYMBOL SCcore 128 176 R0
SYMATTR InstName X1
SYMATTR SpiceLine RSW=1, T = 0.01, B=0.01
SYMBOL SCcore 128 352 R0
SYMATTR InstName X2
SYMATTR SpiceLine RSW=1, T = 0.01, B=0.01
SYMBOL SCcore 400 352 R0
SYMATTR InstName X3
SYMATTR SpiceLine RSW=1, T = 0.01, B=0.01
SYMBOL SCcore 400 176 R0
SYMATTR InstName X4
SYMATTR SpiceLine RSW=1, T = 0.01, B=0.01
SYMBOL SCcore 720 176 R0
SYMATTR InstName X5
SYMATTR SpiceLine RSW=1, T = 0.01, B=0.01
SYMBOL SCcore 720 352 R0
SYMATTR InstName X6
SYMATTR SpiceLine RSW=1, T = 0.01, B=0.01
TEXT -568 40 Left 2 !.param VIn=1 VOut=3.5 T_SW={1/f}
TEXT -568 96 Left 2 !.param  f 50Meg
TEXT -592 584 Left 2 !.tran 0 200n 190n 1p
