Version 4
SHEET 1 912 680
WIRE 192 80 -48 80
WIRE 496 80 192 80
WIRE 736 80 496 80
WIRE 48 144 0 144
WIRE 192 144 192 80
WIRE 192 144 160 144
WIRE 352 144 304 144
WIRE 496 144 496 80
WIRE 496 144 464 144
WIRE 592 144 544 144
WIRE 736 144 736 80
WIRE 736 144 704 144
WIRE -48 176 -48 80
WIRE 48 176 -48 176
WIRE 352 176 160 176
WIRE 592 176 464 176
WIRE 800 176 704 176
WIRE -48 224 -48 176
WIRE 800 240 800 176
WIRE -48 352 -48 304
<<<<<<< HEAD
WIRE 272 352 -48 352
WIRE 800 352 800 320
WIRE 800 352 272 352
WIRE 272 448 272 352
WIRE 272 448 224 448
FLAG 0 144 0
FLAG 304 144 0
FLAG 544 144 0
FLAG 224 448 0
=======
WIRE 352 352 -48 352
WIRE 800 352 800 320
WIRE 800 352 352 352
FLAG 0 144 0
FLAG 304 144 0
FLAG 544 144 0
FLAG 352 352 0
>>>>>>> c5bcdedb406eeb37dc531e07048d5f61fd1b2720
SYMBOL voltage -48 208 R0
WINDOW 123 0 0 Left 0
WINDOW 39 0 0 Left 0
SYMATTR InstName V1
SYMATTR Value {VIn}
SYMBOL voltage 800 224 R0
SYMATTR InstName V2
SYMATTR Value {VOut}
<<<<<<< HEAD
<<<<<<< HEAD
SYMBOL leakagemodel 96 160 R0
SYMATTR InstName X3
SYMATTR SpiceLine RSW=0.5, f={f}, C=2n, B = 0.01 T = 0.01
SYMBOL leakagemodel 400 160 R0
SYMATTR InstName X1
SYMATTR SpiceLine RSW=0.5, f={f}, C=2n, B = 0.01 T = 0.01
SYMBOL leakagemodel 640 160 R0
SYMATTR InstName X2
SYMATTR SpiceLine RSW=0.5, f={f}, C=2n, B = 0.01 T = 0.01
TEXT -82 358 Left 2 !.op
TEXT 216 272 Left 2 !.param VIn = 1 VOut = 3.5
TEXT 368 24 Left 2 !.step param f 50Meg 400Meg 50Meg
=======
SYMBOL leakagemodel 400 160 R0
SYMATTR InstName X2
SYMATTR SpiceLine RSW=0.5, f={f}, C=2n,B=0.01,T=0.01
=======
>>>>>>> 124c0de2922b4ba698cfbd841acf8d2f03f03802
SYMBOL leakagemodel 96 160 R0
SYMATTR InstName X1
SYMATTR SpiceLine RSW=0.5, f={f}, C=2n,B={B},T={B}
SYMBOL leakagemodel 400 160 R0
SYMATTR InstName X2
SYMATTR SpiceLine RSW=0.5, f={f}, C=2n,B={B},T={B}
SYMBOL leakagemodel 640 160 R0
SYMATTR InstName X3
<<<<<<< HEAD
SYMATTR SpiceLine RSW=0.5, f={f}, C=2n,B=0.01,T=0.01
TEXT 240 248 Left 2 !.param VOut = 3.5 VIn = 1
TEXT 152 304 Left 2 !.step param f 50Meg 400Meg 50Meg
TEXT -82 358 Left 2 !.op
>>>>>>> c5bcdedb406eeb37dc531e07048d5f61fd1b2720
=======
SYMATTR SpiceLine RSW=0.5, f={f}, C=2n,B={B},T={B}
TEXT 168 232 Left 2 !.param VOut = 3.5 VIn = 1
TEXT 168 264 Left 2 !.step param f 50Meg 400Meg 50Meg
TEXT -80 360 Left 2 !.op
TEXT 168 296 Left 2 !.param B = 0.05
>>>>>>> 124c0de2922b4ba698cfbd841acf8d2f03f03802
