Version 4
SHEET 1 1496 680
WIRE 336 -512 112 -512
WIRE 576 -512 416 -512
WIRE 112 -336 112 -512
WIRE 352 -336 112 -336
WIRE 576 -336 576 -512
WIRE 576 -336 432 -336
WIRE -304 -208 -416 -208
WIRE 80 -208 -224 -208
WIRE 112 -208 112 -336
WIRE 112 -208 80 -208
WIRE 176 -208 112 -208
WIRE 352 -208 256 -208
WIRE 576 -208 576 -336
WIRE 576 -208 432 -208
WIRE 672 -208 576 -208
WIRE 736 -208 672 -208
WIRE 896 -208 816 -208
WIRE 336 48 96 48
WIRE 560 48 416 48
WIRE -304 176 -416 176
WIRE -32 176 -224 176
WIRE 96 176 96 48
WIRE 96 176 -32 176
WIRE 160 176 96 176
WIRE 336 176 240 176
WIRE 560 176 560 48
WIRE 560 176 416 176
WIRE 656 176 560 176
WIRE 720 176 656 176
WIRE 880 176 800 176
WIRE 96 352 96 176
WIRE 320 352 96 352
WIRE 560 352 560 176
WIRE 560 352 400 352
FLAG -416 176 B1
IOPIN -416 176 In
FLAG 880 176 B2
IOPIN 880 176 In
FLAG 656 176 BP2
FLAG -32 176 BP1
FLAG -416 -208 T1
IOPIN -416 -208 In
FLAG 896 -208 T2
IOPIN 896 -208 In
FLAG 672 -208 TP2
FLAG 80 -208 TP1
SYMBOL res 432 160 R90
WINDOW 0 0 56 VBottom 2
WINDOW 3 32 56 VTop 2
SYMATTR InstName R2
SYMATTR Value {1/(C*F)}
SYMBOL bv 256 176 R90
WINDOW 0 -32 56 VBottom 2
WINDOW 3 32 56 VTop 2
SYMATTR InstName B3
SYMATTR Value V=(V(TP2) - V(TP1))
SYMBOL bi 336 48 R270
WINDOW 0 32 40 VTop 2
WINDOW 3 -32 40 VBottom 2
SYMATTR InstName B4
SYMATTR Value I={B*C*F*(V(BP1) - V(BP2))}
SYMBOL res 448 -224 R90
WINDOW 0 0 56 VBottom 2
WINDOW 3 32 56 VTop 2
SYMATTR InstName R1
SYMATTR Value {1/(C*F)}
SYMBOL bv -208 -208 R90
WINDOW 0 -32 56 VBottom 2
WINDOW 3 32 56 VTop 2
SYMATTR InstName B5
SYMATTR Value V={(A-1)*(V(B1) - V(B2) + V(T2) - V(T1))/(2*(A-2))}
SYMBOL bv 272 -208 R90
WINDOW 0 -32 56 VBottom 2
WINDOW 3 32 56 VTop 2
SYMATTR InstName B7
SYMATTR Value V=(V(BP2) - V(BP1))
SYMBOL bi 352 -336 R270
WINDOW 0 32 40 VTop 2
WINDOW 3 -32 40 VBottom 2
SYMATTR InstName B8
SYMATTR Value I={T*C*F*(V(TP1) - V(TP2))}
SYMBOL bv 832 -208 R90
WINDOW 0 -32 56 VBottom 2
WINDOW 3 32 56 VTop 2
SYMATTR InstName B6
SYMATTR Value V={(A-1)*(V(B1) - V(B2) + V(T2) - V(T1))/(2*(A-2))}
SYMBOL bi 416 -512 M270
WINDOW 0 32 40 VTop 2
WINDOW 3 -32 40 VBottom 2
SYMATTR InstName B9
SYMATTR Value I={ILeak}
SYMBOL bi 400 352 M270
WINDOW 0 32 40 VTop 2
WINDOW 3 -32 40 VBottom 2
SYMATTR InstName B10
SYMATTR Value I={ILeak}
SYMBOL bv -208 176 R90
WINDOW 0 -32 56 VBottom 2
WINDOW 3 32 56 VTop 2
SYMATTR InstName B1
SYMATTR Value V={(1-A)*(V(B1) - V(B2) + V(T2) - V(T1))/(2*(A-2))}
SYMBOL bv 816 176 R90
WINDOW 0 -32 56 VBottom 2
WINDOW 3 32 56 VTop 2
SYMATTR InstName B2
SYMATTR Value V={(1-A)*(V(B1) - V(B2) + V(T2) - V(T1))/(2*(A-2))}
TEXT 736 -400 Left 2 !.param C=1n F=0.025Meg RSW=1000 T=0 B=0
<<<<<<< HEAD
TEXT 736 -360 Left 2 !.param A={1-exp(-1/{2*C*F*RSW*(2+B)})}
=======
TEXT 736 -360 Left 2 !.param A={1-exp(-1/{2*C*F*RSW*(2)})}
>>>>>>> c5bcdedb406eeb37dc531e07048d5f61fd1b2720
TEXT 808 -464 Left 2 !.param ILeak = 0
