Version 4
SHEET 1 928 680
WIRE 16 112 -80 112
WIRE 144 112 16 112
WIRE 512 112 256 112
WIRE 144 144 96 144
WIRE 304 144 256 144
WIRE 512 144 512 112
WIRE -80 192 -80 112
WIRE 16 240 16 112
WIRE 304 240 304 144
WIRE 304 240 16 240
WIRE -80 320 -80 272
WIRE 176 320 -80 320
WIRE 512 320 512 224
WIRE 512 320 176 320
WIRE 176 368 176 320
FLAG 176 368 0
FLAG 96 144 0
SYMBOL voltage -80 176 R0
WINDOW 123 0 0 Left 0
WINDOW 39 0 0 Left 0
SYMATTR InstName V1
SYMATTR Value 1
SYMBOL voltage 512 128 R0
WINDOW 123 0 0 Left 0
WINDOW 39 0 0 Left 0
SYMATTR InstName V2
SYMATTR Value 1.9
SYMBOL leakagemodel 192 128 M180
SYMATTR InstName X1
SYMATTR SpiceLine f = {fSW}, C = 45n, RSW = 112, T = 0.0111, B = 0.010, Ileak = 108n
TEXT 320 40 Left 2 !.param fSW = 75k
TEXT -112 392 Left 2 !.op
