Version 4
SHEET 1 940 680
WIRE 16 112 -80 112
WIRE 128 112 16 112
WIRE 512 112 256 112
WIRE 128 144 96 144
WIRE 304 144 256 144
WIRE 96 176 80 176
WIRE 128 176 96 176
WIRE 272 176 256 176
WIRE 288 176 272 176
WIRE -80 192 -80 112
WIRE 192 224 192 208
WIRE 384 224 192 224
WIRE 16 240 16 112
WIRE 304 240 304 144
WIRE 304 240 16 240
WIRE 384 240 384 224
WIRE -80 320 -80 272
WIRE 176 320 -80 320
WIRE 384 320 176 320
WIRE 512 320 512 192
WIRE 512 320 384 320
WIRE 176 368 176 320
FLAG 176 368 0
FLAG 96 144 0
FLAG 272 176 BP
FLAG 96 176 TP
SYMBOL SCcore_PTM 176 176 R0
SYMATTR InstName X1
SYMATTR SpiceLine CFly=45n, T=0.01 B =0.01
SYMBOL voltage -80 176 R0
WINDOW 123 0 0 Left 0
WINDOW 39 0 0 Left 0
SYMATTR InstName IN
SYMATTR Value 1
SYMBOL voltage 512 96 R0
WINDOW 123 0 0 Left 0
WINDOW 39 0 0 Left 0
SYMATTR InstName OUT
SYMATTR Value 1.9
SYMBOL voltage 384 224 R0
WINDOW 123 0 0 Left 0
WINDOW 39 0 0 Left 0
SYMATTR InstName V3
SYMATTR Value PULSE(0 1 0 0.05n 0.05n {T_SW/2} {T_SW})
TEXT 320 40 Left 2 !.param f_SW=5k T_SW=1/{f_SW}
TEXT -112 392 Left 2 !.tran 0 {30*T_SW} {28*T_SW} 10n
