Version 4
SHEET 1 1064 680
WIRE -48 48 -80 48
WIRE 48 48 32 48
WIRE 144 48 48 48
WIRE 256 48 144 48
WIRE -80 112 -80 48
WIRE 112 112 -80 112
WIRE 256 112 256 48
WIRE 256 112 208 112
WIRE 48 144 48 48
WIRE 112 144 48 144
WIRE 304 144 208 144
WIRE 336 144 304 144
WIRE -80 240 -80 112
WIRE 336 272 336 224
FLAG -80 240 0
FLAG 144 48 IN
FLAG 304 144 OUT
FLAG 336 272 0
SYMBOL voltage 48 48 R90
WINDOW 0 -32 56 VBottom 2
WINDOW 3 32 56 VTop 2
SYMATTR InstName IN
SYMATTR Value {VIn}
SYMBOL voltage 336 128 R0
SYMATTR InstName Out
SYMATTR Value {VOut}
SYMBOL 4Term_Model 144 160 R0
SYMATTR InstName X1
SYMATTR SpiceLine T={T}, B={B}, RSW={1}, C={1n}, fSW={fSW}
TEXT 152 -152 Left 2 !.param fSW=100Meg T=0.05 B=0.05 VIn=1 VOut=1.85 TSW={1/fSW}
TEXT 616 48 Left 2 !.step param fSW 50Meg 250Meg 5Meg
TEXT 544 160 Left 2 !.op
