Version 4
SHEET 1 1136 680
WIRE 128 -32 48 -32
WIRE 272 -32 128 -32
WIRE -48 48 -80 48
WIRE 48 48 48 -32
WIRE 48 48 32 48
WIRE 112 48 48 48
WIRE 384 48 208 48
WIRE 416 48 384 48
WIRE 112 80 64 80
WIRE 272 80 272 -32
WIRE 272 80 208 80
WIRE -80 144 -80 48
WIRE 64 144 64 80
WIRE 64 144 -80 144
WIRE 416 176 416 128
WIRE 784 224 752 224
WIRE 1040 224 1008 224
WIRE -80 240 -80 144
WIRE 784 352 784 304
WIRE 1040 352 1040 304
FLAG -80 240 0
FLAG 384 48 OUT
FLAG 416 176 0
FLAG 128 -32 IN
FLAG 752 224 B
FLAG 784 352 0
FLAG 1008 224 T
FLAG 1040 352 0
SYMBOL voltage 48 48 R90
WINDOW 0 -32 56 VBottom 2
WINDOW 3 32 56 VTop 2
SYMATTR InstName IN
SYMATTR Value {VIn}
SYMBOL voltage 416 32 R0
SYMATTR InstName Out
SYMATTR Value {VOut}
SYMBOL voltage 784 208 R0
SYMATTR InstName Out1
SYMATTR Value {B}
SYMBOL voltage 1040 208 R0
SYMATTR InstName Out2
SYMATTR Value {T}
SYMBOL 4term_model_EQ 144 96 R0
SYMATTR InstName X1
SYMATTR SpiceLine T={T}, B={B}, RSW={1}, C={1n}, fSW={fSW}
TEXT 152 -152 Left 2 !.param fSW=250Meg T=0.05 B=0 VIn=1 VOut=1.85 TSW={1/fSW}
TEXT 616 48 Left 2 ;.step param fSW 50Meg 250Meg 5Meg
TEXT 544 160 Left 2 !.op
TEXT 792 152 Left 2 ;.step param B list 0 0.01 0.05
TEXT 792 104 Left 2 ;.step param T list 0 0.01 0.05
