Version 4
SHEET 1 1080 680
WIRE 160 0 160 -16
WIRE -48 48 -80 48
WIRE 48 48 32 48
WIRE 144 48 48 48
WIRE 256 48 144 48
WIRE 160 96 160 0
WIRE -80 112 -80 48
WIRE 112 112 -80 112
WIRE 256 112 256 48
WIRE 256 112 208 112
WIRE 48 144 48 48
WIRE 112 144 48 144
WIRE 304 144 208 144
WIRE 336 144 304 144
WIRE -80 176 -80 112
WIRE -48 176 -80 176
WIRE 112 176 32 176
WIRE -80 240 -80 176
WIRE 160 240 160 192
WIRE 160 256 160 240
WIRE 336 272 336 224
FLAG -80 240 0
FLAG 144 48 IN
FLAG 304 144 OUT
FLAG 336 272 0
FLAG 160 0 tp
FLAG 160 240 bp
SYMBOL SCcore 160 144 R0
SYMATTR InstName X1
SYMATTR SpiceLine T={T}, B={B}, RSW={1}, C={1n}
SYMBOL voltage 48 48 R90
WINDOW 0 -32 56 VBottom 2
WINDOW 3 32 56 VTop 2
SYMATTR InstName IN
SYMATTR Value {VIn}
SYMBOL voltage 48 176 R90
WINDOW 0 -32 56 VBottom 2
WINDOW 3 32 56 VTop 2
WINDOW 123 0 0 Left 0
WINDOW 39 0 0 Left 0
SYMATTR InstName V2
SYMATTR Value PULSE(0 1 0 0.1p 0.1p {TSW/2} {TSW})
SYMBOL voltage 336 128 R0
SYMATTR InstName Out
SYMATTR Value {VOut}
TEXT 152 -152 Left 2 !.param fSW=250Meg T=0.05 B=0.05 VIn=1 VOut=2 TSW={1/fSW}
TEXT 160 -80 Left 2 !.tran 0 {TSW*70} {TSW*69} 2p
TEXT 176 -40 Left 2 !.meas TRAN IOUT AVG I(OUT)
TEXT 616 48 Left 2 ;.step param fSW 10Meg 250Meg 10Meg
TEXT 208 0 Left 2 !.meas TRAN IIN AVG I(IN)
TEXT 712 184 Left 2 !.step param VOut 1.3 1.9 0.02
